#======================================================================

# CRYSTAL DATA

#----------------------------------------------------------------------

data_VESTA_phase_1


_chemical_name_common                  'Ge2STe'
_cell_length_a                         4.52643
_cell_length_b                         4.03236
_cell_length_c                         20.00000
_cell_angle_alpha                      90
_cell_angle_beta                       90
_cell_angle_gamma                      90
_space_group_name_H-M_alt              'P 1'
_space_group_IT_number                 1

loop_
_space_group_symop_operation_xyz
   'x, y, z'

loop_
   _atom_site_label
   _atom_site_occupancy
   _atom_site_fract_x
   _atom_site_fract_y
   _atom_site_fract_z
   _atom_site_adp_type
   _atom_site_B_iso_or_equiv
   _atom_site_type_symbol
   Ge1        1.0     0.043259      0.707223      0.565686     Biso  1.000000 Ge
   Ge2        1.0     0.614684      0.207087      0.441148     Biso  1.000000 Ge
   Te1        1.0     0.178888      0.707092      0.429616     Biso  1.000000 Te
   S1         1.0     0.687326      0.207172      0.560913     Biso  1.000000 S
