#======================================================================

# CRYSTAL DATA

#----------------------------------------------------------------------

data_VESTA_phase_1


_chemical_name_common                  'GeSeSnS'
_cell_length_a                         4.45050
_cell_length_b                         4.02892
_cell_length_c                         20.00000
_cell_angle_alpha                      90
_cell_angle_beta                       90
_cell_angle_gamma                      90
_space_group_name_H-M_alt              'P 1'
_space_group_IT_number                 1

loop_
_space_group_symop_operation_xyz
   'x, y, z'

loop_
   _atom_site_label
   _atom_site_occupancy
   _atom_site_fract_x
   _atom_site_fract_y
   _atom_site_fract_z
   _atom_site_adp_type
   _atom_site_B_iso_or_equiv
   _atom_site_type_symbol
   Ge1        1.0     0.090181      0.705114      0.564914     Biso  1.000000 Ge
   Se1        1.0     0.690138      0.205148      0.563158     Biso  1.000000 Se
   Sn1        1.0     0.577565      0.205273      0.427034     Biso  1.000000 Sn
   S1         1.0     0.165181      0.705305      0.444176     Biso  1.000000 S
