#======================================================================

# CRYSTAL DATA

#----------------------------------------------------------------------

data_VESTA_phase_1


_chemical_name_common                  'GeSe-SnTe'
_cell_length_a                         4.85880
_cell_length_b                         4.23764
_cell_length_c                         20.00000
_cell_angle_alpha                      90
_cell_angle_beta                       90
_cell_angle_gamma                      90
_space_group_name_H-M_alt              'P 1'
_space_group_IT_number                 1

loop_
_space_group_symop_operation_xyz
   'x, y, z'

loop_
   _atom_site_label
   _atom_site_occupancy
   _atom_site_fract_x
   _atom_site_fract_y
   _atom_site_fract_z
   _atom_site_adp_type
   _atom_site_B_iso_or_equiv
   _atom_site_type_symbol
   Ge1        1.0     0.050473      0.704884      0.568087     Biso  1.000000 Ge
   Se1        1.0     0.699140      0.204990      0.567529     Biso  1.000000 Se
   Sn1        1.0     0.608909      0.204988      0.431626     Biso  1.000000 Sn
   Te1        1.0     0.164456      0.704988      0.431293     Biso  1.000000 Te
