#======================================================================

# CRYSTAL DATA

#----------------------------------------------------------------------

data_VESTA_phase_1


_chemical_name_common                  'GeSnTe2'
_cell_length_a                         4.70001
_cell_length_b                         4.42784
_cell_length_c                         20.00000
_cell_angle_alpha                      90
_cell_angle_beta                       90
_cell_angle_gamma                      90
_space_group_name_H-M_alt              'P 1'
_space_group_IT_number                 1

loop_
_space_group_symop_operation_xyz
   'x, y, z'

loop_
   _atom_site_label
   _atom_site_occupancy
   _atom_site_fract_x
   _atom_site_fract_y
   _atom_site_fract_z
   _atom_site_adp_type
   _atom_site_B_iso_or_equiv
   _atom_site_type_symbol
   Ge1        1.0     0.085368      0.701710      0.564389     Biso  1.000000 Ge
   Sn1        1.0     0.604701      0.201708      0.430471     Biso  1.000000 Sn
   Te1        1.0     0.152381      0.701677      0.426343     Biso  1.000000 Te
   Te2        1.0     0.681249      0.201670      0.576670     Biso  1.000000 Te
