#======================================================================

# CRYSTAL DATA

#----------------------------------------------------------------------

data_VESTA_phase_1


_chemical_name_common                  'GeTe-SnS'
_cell_length_a                         4.48918
_cell_length_b                         4.20610
_cell_length_c                         20.00000
_cell_angle_alpha                      90
_cell_angle_beta                       90
_cell_angle_gamma                      90
_space_group_name_H-M_alt              'P 1'
_space_group_IT_number                 1

loop_
_space_group_symop_operation_xyz
   'x, y, z'

loop_
   _atom_site_label
   _atom_site_occupancy
   _atom_site_fract_x
   _atom_site_fract_y
   _atom_site_fract_z
   _atom_site_adp_type
   _atom_site_B_iso_or_equiv
   _atom_site_type_symbol
   Ge1        1.0     0.116997      0.704973      0.560460     Biso  1.000000 Ge
   Te1        1.0     0.681337      0.204960      0.572982     Biso  1.000000 Te
   Sn1        1.0     0.562652      0.204981      0.427060     Biso  1.000000 Sn
   S1         1.0     0.161981      0.704947      0.439485     Biso  1.000000 S
