#======================================================================

# CRYSTAL DATA

#----------------------------------------------------------------------

data_VESTA_phase_1


_chemical_name_common                  'Sn2SeTe'
_cell_length_a                         4.70048
_cell_length_b                         4.45389
_cell_length_c                         20.00000
_cell_angle_alpha                      90
_cell_angle_beta                       90
_cell_angle_gamma                      90
_space_group_name_H-M_alt              'P 1'
_space_group_IT_number                 1

loop_
_space_group_symop_operation_xyz
   'x, y, z'

loop_
   _atom_site_label
   _atom_site_occupancy
   _atom_site_fract_x
   _atom_site_fract_y
   _atom_site_fract_z
   _atom_site_adp_type
   _atom_site_B_iso_or_equiv
   _atom_site_type_symbol
   Sn1        1.0     0.074719      0.708833      0.572923     Biso  1.000000 Sn
   Sn2        1.0     0.620748      0.208756      0.430696     Biso  1.000000 Sn
   Te1        1.0     0.163597      0.708796      0.425662     Biso  1.000000 Te
   Se1        1.0     0.669495      0.208793      0.568127     Biso  1.000000 Se
