#======================================================================

# CRYSTAL DATA

#----------------------------------------------------------------------

data_VESTA_phase_1


_chemical_name_common                  'Sn2SSe'
_cell_length_a                         4.50906
_cell_length_b                         4.19959
_cell_length_c                         20.00000
_cell_angle_alpha                      90
_cell_angle_beta                       90
_cell_angle_gamma                      90
_space_group_name_H-M_alt              'P 1'
_space_group_IT_number                 1

loop_
_space_group_symop_operation_xyz
   'x, y, z'

loop_
   _atom_site_label
   _atom_site_occupancy
   _atom_site_fract_x
   _atom_site_fract_y
   _atom_site_fract_z
   _atom_site_adp_type
   _atom_site_B_iso_or_equiv
   _atom_site_type_symbol
   Sn1        1.0     0.071662      0.707933      0.574670     Biso  1.000000 Sn
   Sn2        1.0     0.610054      0.208278      0.426402     Biso  1.000000 Sn
   Se1        1.0     0.171329      0.708297      0.438223     Biso  1.000000 Se
   S1         1.0     0.674648      0.208058      0.557489     Biso  1.000000 S
